Circuit: * D:\Faculdade\Circuitos\PRATICA_09_ULA\ULA.asc

WARNING: Less than two connections to node N078.  This node is used by R:X7:U5:OUT:OUT.
WARNING: Less than two connections to node N086.  This node is used by R:X7:U6:OUT:OUT.
WARNING: Less than two connections to node N090.  This node is used by R:X7:U7:OUT:OUT.
WARNING: Less than two connections to node N094.  This node is used by R:X7:U8:OUT:OUT.
WARNING: Less than two connections to node LOGIC_S0.  This node is used by R:X9:U15:OUT:OUT.
WARNING: Less than two connections to node LOGIC_S1.  This node is used by R:X9:U22:OUT:OUT.
WARNING: Less than two connections to node LOGIC_S2.  This node is used by R:X9:U29:OUT:OUT.
WARNING: Less than two connections to node LOGIC_S3.  This node is used by R:X9:U36:OUT:OUT.
WARNING: Less than two connections to node NC_01.  This node is used by R:X10:U5:OUT:OUT.
WARNING: Less than two connections to node NC_02.  This node is used by R:X10:U6:OUT:OUT.
WARNING: Less than two connections to node NC_03.  This node is used by R:X10:U7:OUT:OUT.
WARNING: Less than two connections to node NC_04.  This node is used by R:X10:U8:OUT:OUT.
WARNING: Less than two connections to node NC_05.  This node is used by R:X12:U1:OUT:OUT.
WARNING: Less than two connections to node NC_06.  This node is used by R:X12:U5:OUT:OUT.
WARNING: Less than two connections to node NC_07.  This node is used by R:X12:U6:OUT:OUT.
WARNING: Less than two connections to node NC_08.  This node is used by R:X12:U7:OUT:OUT.
WARNING: Less than two connections to node NC_09.  This node is used by R:X12:U8:OUT:OUT.
WARNING: Less than two connections to node NC_10.  This node is used by R:X14:U5:OUT:OUT.
WARNING: Less than two connections to node NC_11.  This node is used by R:X14:U6:OUT:OUT.
WARNING: Less than two connections to node NC_12.  This node is used by R:X14:U7:OUT:OUT.
WARNING: Less than two connections to node NC_13.  This node is used by R:X14:U8:OUT:OUT.
WARNING: Less than two connections to node NC_14.  This node is used by R:X16:U5:OUT:OUT.
WARNING: Less than two connections to node NC_15.  This node is used by R:X16:U6:OUT:OUT.
WARNING: Less than two connections to node NC_16.  This node is used by R:X16:U7:OUT:OUT.
WARNING: Less than two connections to node NC_17.  This node is used by R:X16:U8:OUT:OUT.
WARNING: Less than two connections to node DESLOCAMENTO_S3.  This node is used by R:X18:U3:OUT:OUT.
WARNING: Less than two connections to node DESLOCAMENTO_OVERLFOW.  This node is used by R:X18:U4:OUT:OUT.
WARNING: Less than two connections to node DESLOCAMENTO_S2.  This node is used by R:X18:U7:OUT:OUT.
WARNING: Less than two connections to node DESLOCAMENTO_S1.  This node is used by R:X18:U10:OUT:OUT.
WARNING: Less than two connections to node DESLOCAMENTO_S0.  This node is used by R:X18:U13:OUT:OUT.
WARNING: Less than two connections to node X22:NC_01.  This node is used by R:X22:X2:X4:U4:OUT:OUT.
WARNING: Less than two connections to node NC_18.  This node is used by R:X22:X3:X4:U4:OUT:OUT.
WARNING: Less than two connections to node S4.  This node is used by R:X24:X9:U1:OUT:OUT.
WARNING: Less than two connections to node S5.  This node is used by R:X24:X11:U6:OUT:OUT.
WARNING: Less than two connections to node S6.  This node is used by R:X24:X12:U6:OUT:OUT.
WARNING: Less than two connections to node OVERFLOW.  This node is used by R:X25:U2:OUT:OUT.
WARNING: Less than two connections to node S0.  This node is used by R:X25:U3:OUT:OUT.
WARNING: Less than two connections to node S1.  This node is used by R:X25:U5:OUT:OUT.
WARNING: Less than two connections to node S2.  This node is used by R:X25:U7:OUT:OUT.
WARNING: Less than two connections to node S3.  This node is used by R:X25:U9:OUT:OUT.
WARNING: Less than two connections to node X29:X1:NC_01.  This node is used by R:X29:X1:X2:X4:U4:OUT:OUT.
WARNING: Less than two connections to node X29:NC_01.  This node is used by R:X29:X1:X3:X1:U1:OUT:OUT.
WARNING: Less than two connections to node X29:NC_02.  This node is used by R:X29:X1:X3:X2:U6:OUT:OUT.
WARNING: Less than two connections to node X29:NC_03.  This node is used by R:X29:X1:X3:X3:U6:OUT:OUT.
WARNING: Less than two connections to node X29:NC_04.  This node is used by R:X29:X1:X3:X4:U6:OUT:OUT.
WARNING: Less than two connections to node X30:X1:NC_01.  This node is used by R:X30:X1:X2:X4:U4:OUT:OUT.
WARNING: Less than two connections to node X30:NC_01.  This node is used by R:X30:X1:X3:X1:U1:OUT:OUT.
WARNING: Less than two connections to node X30:NC_02.  This node is used by R:X30:X1:X3:X2:U6:OUT:OUT.
WARNING: Less than two connections to node X30:NC_03.  This node is used by R:X30:X1:X3:X3:U6:OUT:OUT.
WARNING: Less than two connections to node X30:NC_04.  This node is used by R:X30:X1:X3:X4:U6:OUT:OUT.
WARNING: Less than two connections to node X_MENOR_Y.  This node is used by R:U19:OUT:OUT.
WARNING: Less than two connections to node X_MAIOR_Y.  This node is used by R:U20:OUT:OUT.
WARNING: Less than two connections to node X_IGUAL_Y.  This node is used by R:U21:OUT:OUT.
Direct Newton iteration failed to find .op point.  (Use ".option noopiter" to skip.)
Starting Gmin stepping
Gmin = 10
Gmin = 1.07374
Gmin = 0.115292
Gmin = 0.0123794
Gmin = 0.00132923
Gmin = 0.000142725
Gmin = 1.5325e-005
Gmin = 1.6455e-006
Gmin = 1.76685e-007
Gmin = 1.89714e-008
Gmin = 2.03704e-009
Gmin = 2.18725e-010
Gmin = 2.34854e-011
Gmin = 2.52173e-012
Gmin = 2.70769e-013
Gmin = 0
Gmin stepping succeeded in finding the operating point.

Ignoring empty pin current: Ix(u1:a)
Ignoring empty pin current: Ix(u1:b)
Ignoring empty pin current: Ix(u1:y)
Ignoring empty pin current: Ix(u1:vcc)
Ignoring empty pin current: Ix(u2:a)
Ignoring empty pin current: Ix(u2:b)
Ignoring empty pin current: Ix(u2:y)
Ignoring empty pin current: Ix(u2:vcc)
Ignoring empty pin current: Ix(u3:a)
Ignoring empty pin current: Ix(u3:b)
Ignoring empty pin current: Ix(u3:y)
Ignoring empty pin current: Ix(u3:vcc)
Ignoring empty pin current: Ix(u4:a)
Ignoring empty pin current: Ix(u4:b)
Ignoring empty pin current: Ix(u4:y)
Ignoring empty pin current: Ix(u4:vcc)
Ignoring empty pin current: Ix(u5:a)
Ignoring empty pin current: Ix(u5:b)
Ignoring empty pin current: Ix(u5:y)
Ignoring empty pin current: Ix(u5:vcc)
Ignoring empty pin current: Ix(u6:a)
Ignoring empty pin current: Ix(u6:b)
Ignoring empty pin current: Ix(u6:y)
Ignoring empty pin current: Ix(u6:vcc)
Ignoring empty pin current: Ix(x1:control)
Ignoring empty pin current: Ix(x1:x0)
Ignoring empty pin current: Ix(x1:x1)
Ignoring empty pin current: Ix(x1:x2)
Ignoring empty pin current: Ix(x1:x3)
Ignoring empty pin current: Ix(x1:y0)
Ignoring empty pin current: Ix(x1:y1)
Ignoring empty pin current: Ix(x1:y2)
Ignoring empty pin current: Ix(x1:y3)
Ignoring empty pin current: Ix(x1:sx0)
Ignoring empty pin current: Ix(x1:sx1)
Ignoring empty pin current: Ix(x1:sx2)
Ignoring empty pin current: Ix(x1:sx3)
Ignoring empty pin current: Ix(x1:sy0)
Ignoring empty pin current: Ix(x1:sy1)
Ignoring empty pin current: Ix(x1:sy2)
Ignoring empty pin current: Ix(x1:sy3)
Ignoring empty pin current: Ix(x2:x0)
Ignoring empty pin current: Ix(x2:x1)
Ignoring empty pin current: Ix(x2:x2)
Ignoring empty pin current: Ix(x2:x3)
Ignoring empty pin current: Ix(x2:y0)
Ignoring empty pin current: Ix(x2:y1)
Ignoring empty pin current: Ix(x2:y2)
Ignoring empty pin current: Ix(x2:y3)
Ignoring empty pin current: Ix(x2:s0)
Ignoring empty pin current: Ix(x2:s1)
Ignoring empty pin current: Ix(x2:s2)
Ignoring empty pin current: Ix(x2:s3)
Ignoring empty pin current: Ix(u7:a)
Ignoring empty pin current: Ix(u7:b)
Ignoring empty pin current: Ix(u7:y)
Ignoring empty pin current: Ix(u7:vcc)
Ignoring empty pin current: Ix(u8:a)
Ignoring empty pin current: Ix(u8:b)
Ignoring empty pin current: Ix(u8:y)
Ignoring empty pin current: Ix(u8:vcc)
Ignoring empty pin current: Ix(u9:a)
Ignoring empty pin current: Ix(u9:y)
Ignoring empty pin current: Ix(u9:vcc)
Ignoring empty pin current: Ix(x3:control)
Ignoring empty pin current: Ix(x3:x0)
Ignoring empty pin current: Ix(x3:x1)
Ignoring empty pin current: Ix(x3:x2)
Ignoring empty pin current: Ix(x3:x3)
Ignoring empty pin current: Ix(x3:y0)
Ignoring empty pin current: Ix(x3:y1)
Ignoring empty pin current: Ix(x3:y2)
Ignoring empty pin current: Ix(x3:y3)
Ignoring empty pin current: Ix(x3:sx0)
Ignoring empty pin current: Ix(x3:sx1)
Ignoring empty pin current: Ix(x3:sx2)
Ignoring empty pin current: Ix(x3:sx3)
Ignoring empty pin current: Ix(x3:sy0)
Ignoring empty pin current: Ix(x3:sy1)
Ignoring empty pin current: Ix(x3:sy2)
Ignoring empty pin current: Ix(x3:sy3)
Ignoring empty pin current: Ix(u10:a)
Ignoring empty pin current: Ix(u10:b)
Ignoring empty pin current: Ix(u10:y)
Ignoring empty pin current: Ix(u10:vcc)
Ignoring empty pin current: Ix(u11:a)
Ignoring empty pin current: Ix(u11:b)
Ignoring empty pin current: Ix(u11:y)
Ignoring empty pin current: Ix(u11:vcc)
Ignoring empty pin current: Ix(u12:a)
Ignoring empty pin current: Ix(u12:b)
Ignoring empty pin current: Ix(u12:y)
Ignoring empty pin current: Ix(u12:vcc)
Ignoring empty pin current: Ix(u13:a)
Ignoring empty pin current: Ix(u13:b)
Ignoring empty pin current: Ix(u13:y)
Ignoring empty pin current: Ix(u13:vcc)
Ignoring empty pin current: Ix(u14:a)
Ignoring empty pin current: Ix(u14:b)
Ignoring empty pin current: Ix(u14:y)
Ignoring empty pin current: Ix(u14:vcc)
Ignoring empty pin current: Ix(u15:a)
Ignoring empty pin current: Ix(u15:b)
Ignoring empty pin current: Ix(u15:y)
Ignoring empty pin current: Ix(u15:vcc)
Ignoring empty pin current: Ix(u17:a)
Ignoring empty pin current: Ix(u17:b)
Ignoring empty pin current: Ix(u17:y)
Ignoring empty pin current: Ix(u17:vcc)
Ignoring empty pin current: Ix(u18:a)
Ignoring empty pin current: Ix(u18:y)
Ignoring empty pin current: Ix(u18:vcc)
Ignoring empty pin current: Ix(u20:a)
Ignoring empty pin current: Ix(u20:b)
Ignoring empty pin current: Ix(u20:y)
Ignoring empty pin current: Ix(u20:vcc)
Ignoring empty pin current: Ix(u21:a)
Ignoring empty pin current: Ix(u21:b)
Ignoring empty pin current: Ix(u21:y)
Ignoring empty pin current: Ix(u21:vcc)
Ignoring empty pin current: Ix(u22:a)
Ignoring empty pin current: Ix(u22:b)
Ignoring empty pin current: Ix(u22:y)
Ignoring empty pin current: Ix(u22:vcc)
Ignoring empty pin current: Ix(u22:vgnd)
Ignoring empty pin current: Ix(u24:a)
Ignoring empty pin current: Ix(u24:b)
Ignoring empty pin current: Ix(u24:y)
Ignoring empty pin current: Ix(u24:vcc)
Ignoring empty pin current: Ix(u24:vgnd)
Ignoring empty pin current: Ix(u25:a)
Ignoring empty pin current: Ix(u25:y)
Ignoring empty pin current: Ix(u25:vcc)
Ignoring empty pin current: Ix(u25:vgnd)
Ignoring empty pin current: Ix(u27:a)
Ignoring empty pin current: Ix(u27:b)
Ignoring empty pin current: Ix(u27:y)
Ignoring empty pin current: Ix(u27:vcc)
Ignoring empty pin current: Ix(u27:vgnd)
Ignoring empty pin current: Ix(u28:a)
Ignoring empty pin current: Ix(u28:b)
Ignoring empty pin current: Ix(u28:y)
Ignoring empty pin current: Ix(u28:vcc)
Ignoring empty pin current: Ix(u28:vgnd)
Ignoring empty pin current: Ix(u29:a)
Ignoring empty pin current: Ix(u29:b)
Ignoring empty pin current: Ix(u29:y)
Ignoring empty pin current: Ix(u29:vcc)
Ignoring empty pin current: Ix(u29:vgnd)
Ignoring empty pin current: Ix(u31:a)
Ignoring empty pin current: Ix(u31:b)
Ignoring empty pin current: Ix(u31:y)
Ignoring empty pin current: Ix(u31:vcc)
Ignoring empty pin current: Ix(u31:vgnd)
Ignoring empty pin current: Ix(u32:a)
Ignoring empty pin current: Ix(u32:y)
Ignoring empty pin current: Ix(u32:vcc)
Ignoring empty pin current: Ix(u32:vgnd)
Ignoring empty pin current: Ix(u34:a)
Ignoring empty pin current: Ix(u34:b)
Ignoring empty pin current: Ix(u34:y)
Ignoring empty pin current: Ix(u34:vcc)
Ignoring empty pin current: Ix(u34:vgnd)
Ignoring empty pin current: Ix(u35:a)
Ignoring empty pin current: Ix(u35:b)
Ignoring empty pin current: Ix(u35:y)
Ignoring empty pin current: Ix(u35:vcc)
Ignoring empty pin current: Ix(u35:vgnd)
Ignoring empty pin current: Ix(u36:a)
Ignoring empty pin current: Ix(u36:b)
Ignoring empty pin current: Ix(u36:y)
Ignoring empty pin current: Ix(u36:vcc)
Ignoring empty pin current: Ix(u36:vgnd)
Ignoring empty pin current: Ix(x4:x0)
Ignoring empty pin current: Ix(x4:x1)
Ignoring empty pin current: Ix(x4:x2)
Ignoring empty pin current: Ix(x4:x3)
Ignoring empty pin current: Ix(x4:y0)
Ignoring empty pin current: Ix(x4:y1)
Ignoring empty pin current: Ix(x4:y2)
Ignoring empty pin current: Ix(x4:y3)
Ignoring empty pin current: Ix(x4:s0)
Ignoring empty pin current: Ix(x4:s1)
Ignoring empty pin current: Ix(x4:s2)
Ignoring empty pin current: Ix(x4:s3)
Ignoring empty pin current: Ix(x5:control)
Ignoring empty pin current: Ix(x5:x0)
Ignoring empty pin current: Ix(x5:x1)
Ignoring empty pin current: Ix(x5:x2)
Ignoring empty pin current: Ix(x5:x3)
Ignoring empty pin current: Ix(x5:y0)
Ignoring empty pin current: Ix(x5:y1)
Ignoring empty pin current: Ix(x5:y2)
Ignoring empty pin current: Ix(x5:y3)
Ignoring empty pin current: Ix(x5:sx0)
Ignoring empty pin current: Ix(x5:sx1)
Ignoring empty pin current: Ix(x5:sx2)
Ignoring empty pin current: Ix(x5:sx3)
Ignoring empty pin current: Ix(x5:sy0)
Ignoring empty pin current: Ix(x5:sy1)
Ignoring empty pin current: Ix(x5:sy2)
Ignoring empty pin current: Ix(x5:sy3)
Ignoring empty pin current: Ix(x6:x0)
Ignoring empty pin current: Ix(x6:x1)
Ignoring empty pin current: Ix(x6:x2)
Ignoring empty pin current: Ix(x6:x3)
Ignoring empty pin current: Ix(x6:y0)
Ignoring empty pin current: Ix(x6:y1)
Ignoring empty pin current: Ix(x6:y2)
Ignoring empty pin current: Ix(x6:y3)
Ignoring empty pin current: Ix(x6:s0)
Ignoring empty pin current: Ix(x6:s1)
Ignoring empty pin current: Ix(x6:s2)
Ignoring empty pin current: Ix(x6:s3)
Ignoring empty pin current: Ix(x7:control)
Ignoring empty pin current: Ix(x7:x0)
Ignoring empty pin current: Ix(x7:x1)
Ignoring empty pin current: Ix(x7:x2)
Ignoring empty pin current: Ix(x7:x3)
Ignoring empty pin current: Ix(x7:y0)
Ignoring empty pin current: Ix(x7:y1)
Ignoring empty pin current: Ix(x7:y2)
Ignoring empty pin current: Ix(x7:y3)
Ignoring empty pin current: Ix(x7:sx0)
Ignoring empty pin current: Ix(x7:sx1)
Ignoring empty pin current: Ix(x7:sx2)
Ignoring empty pin current: Ix(x7:sx3)
Ignoring empty pin current: Ix(x7:sy0)
Ignoring empty pin current: Ix(x7:sy1)
Ignoring empty pin current: Ix(x7:sy2)
Ignoring empty pin current: Ix(x7:sy3)
Ignoring empty pin current: Ix(x8:x0)
Ignoring empty pin current: Ix(x8:x1)
Ignoring empty pin current: Ix(x8:x2)
Ignoring empty pin current: Ix(x8:x3)
Ignoring empty pin current: Ix(x8:y0)
Ignoring empty pin current: Ix(x8:y1)
Ignoring empty pin current: Ix(x8:y2)
Ignoring empty pin current: Ix(x8:y3)
Ignoring empty pin current: Ix(x9:logic_s0_and)
Ignoring empty pin current: Ix(x9:logic_s0_not)
Ignoring empty pin current: Ix(x9:logic_s0_or)
Ignoring empty pin current: Ix(x9:logic_s0_x-or)
Ignoring empty pin current: Ix(x9:logic_s1_and)
Ignoring empty pin current: Ix(x9:logic_s1_not)
Ignoring empty pin current: Ix(x9:logic_s1_or)
Ignoring empty pin current: Ix(x9:logic_s1_x-or)
Ignoring empty pin current: Ix(x9:logic_s2_and)
Ignoring empty pin current: Ix(x9:logic_s2_not)
Ignoring empty pin current: Ix(x9:logic_s2_or)
Ignoring empty pin current: Ix(x9:logic_s2_x-or)
Ignoring empty pin current: Ix(x9:logic_s3_and)
Ignoring empty pin current: Ix(x9:logic_s3_not)
Ignoring empty pin current: Ix(x9:logic_s3_or)
Ignoring empty pin current: Ix(x9:logic_s3_x-or)
Ignoring empty pin current: Ix(x9:sc0)
Ignoring empty pin current: Ix(x9:sc1)
Ignoring empty pin current: Ix(x9:sc2)
Ignoring empty pin current: Ix(x9:sc3)
Ignoring empty pin current: Ix(x9:logic_s0)
Ignoring empty pin current: Ix(x9:logic_s1)
Ignoring empty pin current: Ix(x9:logic_s2)
Ignoring empty pin current: Ix(x9:logic_s3)
Ignoring empty pin current: Ix(x10:control)
Ignoring empty pin current: Ix(x10:x0)
Ignoring empty pin current: Ix(x10:x1)
Ignoring empty pin current: Ix(x10:x2)
Ignoring empty pin current: Ix(x10:x3)
Ignoring empty pin current: Ix(x10:y0)
Ignoring empty pin current: Ix(x10:y1)
Ignoring empty pin current: Ix(x10:y2)
Ignoring empty pin current: Ix(x10:y3)
Ignoring empty pin current: Ix(x10:sx0)
Ignoring empty pin current: Ix(x10:sx1)
Ignoring empty pin current: Ix(x10:sx2)
Ignoring empty pin current: Ix(x10:sx3)
Ignoring empty pin current: Ix(x10:sy0)
Ignoring empty pin current: Ix(x10:sy1)
Ignoring empty pin current: Ix(x10:sy2)
Ignoring empty pin current: Ix(x10:sy3)
Ignoring empty pin current: Ix(x11:x0)
Ignoring empty pin current: Ix(x11:x1)
Ignoring empty pin current: Ix(x11:x2)
Ignoring empty pin current: Ix(x11:x3)
Ignoring empty pin current: Ix(x11:overflow)
Ignoring empty pin current: Ix(x11:s1)
Ignoring empty pin current: Ix(x11:s2)
Ignoring empty pin current: Ix(x11:s3)
Ignoring empty pin current: Ix(x12:control)
Ignoring empty pin current: Ix(x12:x0)
Ignoring empty pin current: Ix(x12:x1)
Ignoring empty pin current: Ix(x12:x2)
Ignoring empty pin current: Ix(x12:x3)
Ignoring empty pin current: Ix(x12:y0)
Ignoring empty pin current: Ix(x12:y1)
Ignoring empty pin current: Ix(x12:y2)
Ignoring empty pin current: Ix(x12:y3)
Ignoring empty pin current: Ix(x12:sx0)
Ignoring empty pin current: Ix(x12:sx1)
Ignoring empty pin current: Ix(x12:sx2)
Ignoring empty pin current: Ix(x12:sx3)
Ignoring empty pin current: Ix(x12:sy0)
Ignoring empty pin current: Ix(x12:sy1)
Ignoring empty pin current: Ix(x12:sy2)
Ignoring empty pin current: Ix(x12:sy3)
Ignoring empty pin current: Ix(x13:x1)
Ignoring empty pin current: Ix(x13:x2)
Ignoring empty pin current: Ix(x13:x3)
Ignoring empty pin current: Ix(x13:s0)
Ignoring empty pin current: Ix(x13:s1)
Ignoring empty pin current: Ix(x13:s2)
Ignoring empty pin current: Ix(x14:control)
Ignoring empty pin current: Ix(x14:x0)
Ignoring empty pin current: Ix(x14:x1)
Ignoring empty pin current: Ix(x14:x2)
Ignoring empty pin current: Ix(x14:x3)
Ignoring empty pin current: Ix(x14:y0)
Ignoring empty pin current: Ix(x14:y1)
Ignoring empty pin current: Ix(x14:y2)
Ignoring empty pin current: Ix(x14:y3)
Ignoring empty pin current: Ix(x14:sx0)
Ignoring empty pin current: Ix(x14:sx1)
Ignoring empty pin current: Ix(x14:sx2)
Ignoring empty pin current: Ix(x14:sx3)
Ignoring empty pin current: Ix(x14:sy0)
Ignoring empty pin current: Ix(x14:sy1)
Ignoring empty pin current: Ix(x14:sy2)
Ignoring empty pin current: Ix(x14:sy3)
Ignoring empty pin current: Ix(x15:x0)
Ignoring empty pin current: Ix(x15:x1)
Ignoring empty pin current: Ix(x15:x2)
Ignoring empty pin current: Ix(x15:x3)
Ignoring empty pin current: Ix(x15:s0)
Ignoring empty pin current: Ix(x15:s1)
Ignoring empty pin current: Ix(x15:s2)
Ignoring empty pin current: Ix(x15:s3)
Ignoring empty pin current: Ix(x16:control)
Ignoring empty pin current: Ix(x16:x0)
Ignoring empty pin current: Ix(x16:x1)
Ignoring empty pin current: Ix(x16:x2)
Ignoring empty pin current: Ix(x16:x3)
Ignoring empty pin current: Ix(x16:y0)
Ignoring empty pin current: Ix(x16:y1)
Ignoring empty pin current: Ix(x16:y2)
Ignoring empty pin current: Ix(x16:y3)
Ignoring empty pin current: Ix(x16:sx0)
Ignoring empty pin current: Ix(x16:sx1)
Ignoring empty pin current: Ix(x16:sx2)
Ignoring empty pin current: Ix(x16:sx3)
Ignoring empty pin current: Ix(x16:sy0)
Ignoring empty pin current: Ix(x16:sy1)
Ignoring empty pin current: Ix(x16:sy2)
Ignoring empty pin current: Ix(x16:sy3)
Ignoring empty pin current: Ix(x17:x0)
Ignoring empty pin current: Ix(x17:x1)
Ignoring empty pin current: Ix(x17:x2)
Ignoring empty pin current: Ix(x17:x3)
Ignoring empty pin current: Ix(x17:s0)
Ignoring empty pin current: Ix(x17:s1)
Ignoring empty pin current: Ix(x17:s2)
Ignoring empty pin current: Ix(x17:s3)
Ignoring empty pin current: Ix(x18:overflow)
Ignoring empty pin current: Ix(x18:s0_0)
Ignoring empty pin current: Ix(x18:s0_1)
Ignoring empty pin current: Ix(x18:s0_2)
Ignoring empty pin current: Ix(x18:s0_3)
Ignoring empty pin current: Ix(x18:s1_0)
Ignoring empty pin current: Ix(x18:s1_1)
Ignoring empty pin current: Ix(x18:s1_2)
Ignoring empty pin current: Ix(x18:s1_3)
Ignoring empty pin current: Ix(x18:s2_0)
Ignoring empty pin current: Ix(x18:s2_1)
Ignoring empty pin current: Ix(x18:s2_2)
Ignoring empty pin current: Ix(x18:s2_3)
Ignoring empty pin current: Ix(x18:s3_0)
Ignoring empty pin current: Ix(x18:s3_1)
Ignoring empty pin current: Ix(x18:s3_2)
Ignoring empty pin current: Ix(x18:s3_3)
Ignoring empty pin current: Ix(x18:deslocamento_overflow)
Ignoring empty pin current: Ix(x18:deslocamento_s0)
Ignoring empty pin current: Ix(x18:deslocamento_s1)
Ignoring empty pin current: Ix(x18:deslocamento_s2)
Ignoring empty pin current: Ix(x18:deslocamento_s3)
Ignoring empty pin current: Ix(x19:control)
Ignoring empty pin current: Ix(x19:x0)
Ignoring empty pin current: Ix(x19:x1)
Ignoring empty pin current: Ix(x19:x2)
Ignoring empty pin current: Ix(x19:x3)
Ignoring empty pin current: Ix(x19:y0)
Ignoring empty pin current: Ix(x19:y1)
Ignoring empty pin current: Ix(x19:y2)
Ignoring empty pin current: Ix(x19:y3)
Ignoring empty pin current: Ix(x19:sx0)
Ignoring empty pin current: Ix(x19:sx1)
Ignoring empty pin current: Ix(x19:sx2)
Ignoring empty pin current: Ix(x19:sx3)
Ignoring empty pin current: Ix(x19:sy0)
Ignoring empty pin current: Ix(x19:sy1)
Ignoring empty pin current: Ix(x19:sy2)
Ignoring empty pin current: Ix(x19:sy3)
Ignoring empty pin current: Ix(x20:x0)
Ignoring empty pin current: Ix(x20:x1)
Ignoring empty pin current: Ix(x20:x2)
Ignoring empty pin current: Ix(x20:x3)
Ignoring empty pin current: Ix(x20:y0)
Ignoring empty pin current: Ix(x20:y1)
Ignoring empty pin current: Ix(x20:y2)
Ignoring empty pin current: Ix(x20:y3)
Ignoring empty pin current: Ix(x20:overflow)
Ignoring empty pin current: Ix(x20:s0)
Ignoring empty pin current: Ix(x20:s1)
Ignoring empty pin current: Ix(x20:s2)
Ignoring empty pin current: Ix(x20:s3)
Ignoring empty pin current: Ix(x21:control)
Ignoring empty pin current: Ix(x21:x0)
Ignoring empty pin current: Ix(x21:x1)
Ignoring empty pin current: Ix(x21:x2)
Ignoring empty pin current: Ix(x21:x3)
Ignoring empty pin current: Ix(x21:y0)
Ignoring empty pin current: Ix(x21:y1)
Ignoring empty pin current: Ix(x21:y2)
Ignoring empty pin current: Ix(x21:y3)
Ignoring empty pin current: Ix(x21:sx0)
Ignoring empty pin current: Ix(x21:sx1)
Ignoring empty pin current: Ix(x21:sx2)
Ignoring empty pin current: Ix(x21:sx3)
Ignoring empty pin current: Ix(x21:sy0)
Ignoring empty pin current: Ix(x21:sy1)
Ignoring empty pin current: Ix(x21:sy2)
Ignoring empty pin current: Ix(x21:sy3)
Ignoring empty pin current: Ix(x22:x0)
Ignoring empty pin current: Ix(x22:x1)
Ignoring empty pin current: Ix(x22:x2)
Ignoring empty pin current: Ix(x22:x3)
Ignoring empty pin current: Ix(x22:y0)
Ignoring empty pin current: Ix(x22:y1)
Ignoring empty pin current: Ix(x22:y2)
Ignoring empty pin current: Ix(x22:y3)
Ignoring empty pin current: Ix(x22:overflow)
Ignoring empty pin current: Ix(x22:s0)
Ignoring empty pin current: Ix(x22:s1)
Ignoring empty pin current: Ix(x22:s2)
Ignoring empty pin current: Ix(x22:s3)
Ignoring empty pin current: Ix(x23:control)
Ignoring empty pin current: Ix(x23:x0)
Ignoring empty pin current: Ix(x23:x1)
Ignoring empty pin current: Ix(x23:x2)
Ignoring empty pin current: Ix(x23:x3)
Ignoring empty pin current: Ix(x23:y0)
Ignoring empty pin current: Ix(x23:y1)
Ignoring empty pin current: Ix(x23:y2)
Ignoring empty pin current: Ix(x23:y3)
Ignoring empty pin current: Ix(x23:sx0)
Ignoring empty pin current: Ix(x23:sx1)
Ignoring empty pin current: Ix(x23:sx2)
Ignoring empty pin current: Ix(x23:sx3)
Ignoring empty pin current: Ix(x23:sy0)
Ignoring empty pin current: Ix(x23:sy1)
Ignoring empty pin current: Ix(x23:sy2)
Ignoring empty pin current: Ix(x23:sy3)
Ignoring empty pin current: Ix(x24:overflow)
Ignoring empty pin current: Ix(x24:s1)
Ignoring empty pin current: Ix(x24:s2)
Ignoring empty pin current: Ix(x24:s3)
Ignoring empty pin current: Ix(x24:s4)
Ignoring empty pin current: Ix(x24:s5)
Ignoring empty pin current: Ix(x24:s6)
Ignoring empty pin current: Ix(u16:vcc)
Ignoring empty pin current: Ix(x29:x0)
Ignoring empty pin current: Ix(x29:x1)
Ignoring empty pin current: Ix(x29:x2)
Ignoring empty pin current: Ix(x29:x3)
Ignoring empty pin current: Ix(x29:y0)
Ignoring empty pin current: Ix(x29:y1)
Ignoring empty pin current: Ix(x29:y2)
Ignoring empty pin current: Ix(x29:y3)
Ignoring empty pin current: Ix(x30:x0)
Ignoring empty pin current: Ix(x30:x1)
Ignoring empty pin current: Ix(x30:x2)
Ignoring empty pin current: Ix(x30:x3)
Ignoring empty pin current: Ix(x30:y0)
Ignoring empty pin current: Ix(x30:y1)
Ignoring empty pin current: Ix(x30:y2)
Ignoring empty pin current: Ix(x30:y3)
Ignoring empty pin current: Ix(x30:x>y)
Ignoring empty pin current: Ix(x31:x0)
Ignoring empty pin current: Ix(x31:x1)
Ignoring empty pin current: Ix(x31:x2)
Ignoring empty pin current: Ix(x31:x3)
Ignoring empty pin current: Ix(x31:y0)
Ignoring empty pin current: Ix(x31:y1)
Ignoring empty pin current: Ix(x31:y2)
Ignoring empty pin current: Ix(x31:y3)
Ignoring empty pin current: Ix(x31:s)
Ignoring empty pin current: Ix(u19:vcc)
Ignoring empty pin current: Ix(u1:a)
Ignoring empty pin current: Ix(u1:b)
Ignoring empty pin current: Ix(u1:y)
Ignoring empty pin current: Ix(u1:vcc)
Ignoring empty pin current: Ix(u2:a)
Ignoring empty pin current: Ix(u2:b)
Ignoring empty pin current: Ix(u2:y)
Ignoring empty pin current: Ix(u2:vcc)
Ignoring empty pin current: Ix(u3:a)
Ignoring empty pin current: Ix(u3:b)
Ignoring empty pin current: Ix(u3:y)
Ignoring empty pin current: Ix(u3:vcc)
Ignoring empty pin current: Ix(u4:a)
Ignoring empty pin current: Ix(u4:b)
Ignoring empty pin current: Ix(u4:y)
Ignoring empty pin current: Ix(u4:vcc)
Ignoring empty pin current: Ix(u5:a)
Ignoring empty pin current: Ix(u5:b)
Ignoring empty pin current: Ix(u5:y)
Ignoring empty pin current: Ix(u5:vcc)
Ignoring empty pin current: Ix(u6:a)
Ignoring empty pin current: Ix(u6:b)
Ignoring empty pin current: Ix(u6:y)
Ignoring empty pin current: Ix(u6:vcc)
Ignoring empty pin current: Ix(x1:control)
Ignoring empty pin current: Ix(x1:x0)
Ignoring empty pin current: Ix(x1:x1)
Ignoring empty pin current: Ix(x1:x2)
Ignoring empty pin current: Ix(x1:x3)
Ignoring empty pin current: Ix(x1:y0)
Ignoring empty pin current: Ix(x1:y1)
Ignoring empty pin current: Ix(x1:y2)
Ignoring empty pin current: Ix(x1:y3)
Ignoring empty pin current: Ix(x1:sx0)
Ignoring empty pin current: Ix(x1:sx1)
Ignoring empty pin current: Ix(x1:sx2)
Ignoring empty pin current: Ix(x1:sx3)
Ignoring empty pin current: Ix(x1:sy0)
Ignoring empty pin current: Ix(x1:sy1)
Ignoring empty pin current: Ix(x1:sy2)
Ignoring empty pin current: Ix(x1:sy3)
Ignoring empty pin current: Ix(x2:x0)
Ignoring empty pin current: Ix(x2:x1)
Ignoring empty pin current: Ix(x2:x2)
Ignoring empty pin current: Ix(x2:x3)
Ignoring empty pin current: Ix(x2:y0)
Ignoring empty pin current: Ix(x2:y1)
Ignoring empty pin current: Ix(x2:y2)
Ignoring empty pin current: Ix(x2:y3)
Ignoring empty pin current: Ix(x2:s0)
Ignoring empty pin current: Ix(x2:s1)
Ignoring empty pin current: Ix(x2:s2)
Ignoring empty pin current: Ix(x2:s3)
Ignoring empty pin current: Ix(u7:a)
Ignoring empty pin current: Ix(u7:b)
Ignoring empty pin current: Ix(u7:y)
Ignoring empty pin current: Ix(u7:vcc)
Ignoring empty pin current: Ix(u8:a)
Ignoring empty pin current: Ix(u8:b)
Ignoring empty pin current: Ix(u8:y)
Ignoring empty pin current: Ix(u8:vcc)
Ignoring empty pin current: Ix(u9:a)
Ignoring empty pin current: Ix(u9:y)
Ignoring empty pin current: Ix(u9:vcc)
Ignoring empty pin current: Ix(x3:control)
Ignoring empty pin current: Ix(x3:x0)
Ignoring empty pin current: Ix(x3:x1)
Ignoring empty pin current: Ix(x3:x2)
Ignoring empty pin current: Ix(x3:x3)
Ignoring empty pin current: Ix(x3:y0)
Ignoring empty pin current: Ix(x3:y1)
Ignoring empty pin current: Ix(x3:y2)
Ignoring empty pin current: Ix(x3:y3)
Ignoring empty pin current: Ix(x3:sx0)
Ignoring empty pin current: Ix(x3:sx1)
Ignoring empty pin current: Ix(x3:sx2)
Ignoring empty pin current: Ix(x3:sx3)
Ignoring empty pin current: Ix(x3:sy0)
Ignoring empty pin current: Ix(x3:sy1)
Ignoring empty pin current: Ix(x3:sy2)
Ignoring empty pin current: Ix(x3:sy3)
Ignoring empty pin current: Ix(u10:a)
Ignoring empty pin current: Ix(u10:b)
Ignoring empty pin current: Ix(u10:y)
Ignoring empty pin current: Ix(u10:vcc)
Ignoring empty pin current: Ix(u11:a)
Ignoring empty pin current: Ix(u11:b)
Ignoring empty pin current: Ix(u11:y)
Ignoring empty pin current: Ix(u11:vcc)
Ignoring empty pin current: Ix(u12:a)
Ignoring empty pin current: Ix(u12:b)
Ignoring empty pin current: Ix(u12:y)
Ignoring empty pin current: Ix(u12:vcc)
Ignoring empty pin current: Ix(u13:a)
Ignoring empty pin current: Ix(u13:b)
Ignoring empty pin current: Ix(u13:y)
Ignoring empty pin current: Ix(u13:vcc)
Ignoring empty pin current: Ix(u14:a)
Ignoring empty pin current: Ix(u14:b)
Ignoring empty pin current: Ix(u14:y)
Ignoring empty pin current: Ix(u14:vcc)
Ignoring empty pin current: Ix(u15:a)
Ignoring empty pin current: Ix(u15:b)
Ignoring empty pin current: Ix(u15:y)
Ignoring empty pin current: Ix(u15:vcc)
Ignoring empty pin current: Ix(u17:a)
Ignoring empty pin current: Ix(u17:b)
Ignoring empty pin current: Ix(u17:y)
Ignoring empty pin current: Ix(u17:vcc)
Ignoring empty pin current: Ix(u18:a)
Ignoring empty pin current: Ix(u18:y)
Ignoring empty pin current: Ix(u18:vcc)
Ignoring empty pin current: Ix(u20:a)
Ignoring empty pin current: Ix(u20:b)
Ignoring empty pin current: Ix(u20:y)
Ignoring empty pin current: Ix(u20:vcc)
Ignoring empty pin current: Ix(u21:a)
Ignoring empty pin current: Ix(u21:b)
Ignoring empty pin current: Ix(u21:y)
Ignoring empty pin current: Ix(u21:vcc)
Ignoring empty pin current: Ix(u22:a)
Ignoring empty pin current: Ix(u22:b)
Ignoring empty pin current: Ix(u22:y)
Ignoring empty pin current: Ix(u22:vcc)
Ignoring empty pin current: Ix(u22:vgnd)
Ignoring empty pin current: Ix(u24:a)
Ignoring empty pin current: Ix(u24:b)
Ignoring empty pin current: Ix(u24:y)
Ignoring empty pin current: Ix(u24:vcc)
Ignoring empty pin current: Ix(u24:vgnd)
Ignoring empty pin current: Ix(u25:a)
Ignoring empty pin current: Ix(u25:y)
Ignoring empty pin current: Ix(u25:vcc)
Ignoring empty pin current: Ix(u25:vgnd)
Ignoring empty pin current: Ix(u27:a)
Ignoring empty pin current: Ix(u27:b)
Ignoring empty pin current: Ix(u27:y)
Ignoring empty pin current: Ix(u27:vcc)
Ignoring empty pin current: Ix(u27:vgnd)
Ignoring empty pin current: Ix(u28:a)
Ignoring empty pin current: Ix(u28:b)
Ignoring empty pin current: Ix(u28:y)
Ignoring empty pin current: Ix(u28:vcc)
Ignoring empty pin current: Ix(u28:vgnd)
Ignoring empty pin current: Ix(u29:a)
Ignoring empty pin current: Ix(u29:b)
Ignoring empty pin current: Ix(u29:y)
Ignoring empty pin current: Ix(u29:vcc)
Ignoring empty pin current: Ix(u29:vgnd)
Ignoring empty pin current: Ix(u31:a)
Ignoring empty pin current: Ix(u31:b)
Ignoring empty pin current: Ix(u31:y)
Ignoring empty pin current: Ix(u31:vcc)
Ignoring empty pin current: Ix(u31:vgnd)
Ignoring empty pin current: Ix(u32:a)
Ignoring empty pin current: Ix(u32:y)
Ignoring empty pin current: Ix(u32:vcc)
Ignoring empty pin current: Ix(u32:vgnd)
Ignoring empty pin current: Ix(u34:a)
Ignoring empty pin current: Ix(u34:b)
Ignoring empty pin current: Ix(u34:y)
Ignoring empty pin current: Ix(u34:vcc)
Ignoring empty pin current: Ix(u34:vgnd)
Ignoring empty pin current: Ix(u35:a)
Ignoring empty pin current: Ix(u35:b)
Ignoring empty pin current: Ix(u35:y)
Ignoring empty pin current: Ix(u35:vcc)
Ignoring empty pin current: Ix(u35:vgnd)
Ignoring empty pin current: Ix(u36:a)
Ignoring empty pin current: Ix(u36:b)
Ignoring empty pin current: Ix(u36:y)
Ignoring empty pin current: Ix(u36:vcc)
Ignoring empty pin current: Ix(u36:vgnd)
Ignoring empty pin current: Ix(x4:x0)
Ignoring empty pin current: Ix(x4:x1)
Ignoring empty pin current: Ix(x4:x2)
Ignoring empty pin current: Ix(x4:x3)
Ignoring empty pin current: Ix(x4:y0)
Ignoring empty pin current: Ix(x4:y1)
Ignoring empty pin current: Ix(x4:y2)
Ignoring empty pin current: Ix(x4:y3)
Ignoring empty pin current: Ix(x4:s0)
Ignoring empty pin current: Ix(x4:s1)
Ignoring empty pin current: Ix(x4:s2)
Ignoring empty pin current: Ix(x4:s3)
Ignoring empty pin current: Ix(x5:control)
Ignoring empty pin current: Ix(x5:x0)
Ignoring empty pin current: Ix(x5:x1)
Ignoring empty pin current: Ix(x5:x2)
Ignoring empty pin current: Ix(x5:x3)
Ignoring empty pin current: Ix(x5:y0)
Ignoring empty pin current: Ix(x5:y1)
Ignoring empty pin current: Ix(x5:y2)
Ignoring empty pin current: Ix(x5:y3)
Ignoring empty pin current: Ix(x5:sx0)
Ignoring empty pin current: Ix(x5:sx1)
Ignoring empty pin current: Ix(x5:sx2)
Ignoring empty pin current: Ix(x5:sx3)
Ignoring empty pin current: Ix(x5:sy0)
Ignoring empty pin current: Ix(x5:sy1)
Ignoring empty pin current: Ix(x5:sy2)
Ignoring empty pin current: Ix(x5:sy3)
Ignoring empty pin current: Ix(x6:x0)
Ignoring empty pin current: Ix(x6:x1)
Ignoring empty pin current: Ix(x6:x2)
Ignoring empty pin current: Ix(x6:x3)
Ignoring empty pin current: Ix(x6:y0)
Ignoring empty pin current: Ix(x6:y1)
Ignoring empty pin current: Ix(x6:y2)
Ignoring empty pin current: Ix(x6:y3)
Ignoring empty pin current: Ix(x6:s0)
Ignoring empty pin current: Ix(x6:s1)
Ignoring empty pin current: Ix(x6:s2)
Ignoring empty pin current: Ix(x6:s3)
Ignoring empty pin current: Ix(x7:control)
Ignoring empty pin current: Ix(x7:x0)
Ignoring empty pin current: Ix(x7:x1)
Ignoring empty pin current: Ix(x7:x2)
Ignoring empty pin current: Ix(x7:x3)
Ignoring empty pin current: Ix(x7:y0)
Ignoring empty pin current: Ix(x7:y1)
Ignoring empty pin current: Ix(x7:y2)
Ignoring empty pin current: Ix(x7:y3)
Ignoring empty pin current: Ix(x7:sx0)
Ignoring empty pin current: Ix(x7:sx1)
Ignoring empty pin current: Ix(x7:sx2)
Ignoring empty pin current: Ix(x7:sx3)
Ignoring empty pin current: Ix(x7:sy0)
Ignoring empty pin current: Ix(x7:sy1)
Ignoring empty pin current: Ix(x7:sy2)
Ignoring empty pin current: Ix(x7:sy3)
Ignoring empty pin current: Ix(x8:x0)
Ignoring empty pin current: Ix(x8:x1)
Ignoring empty pin current: Ix(x8:x2)
Ignoring empty pin current: Ix(x8:x3)
Ignoring empty pin current: Ix(x8:y0)
Ignoring empty pin current: Ix(x8:y1)
Ignoring empty pin current: Ix(x8:y2)
Ignoring empty pin current: Ix(x8:y3)
Ignoring empty pin current: Ix(x9:logic_s0_and)
Ignoring empty pin current: Ix(x9:logic_s0_not)
Ignoring empty pin current: Ix(x9:logic_s0_or)
Ignoring empty pin current: Ix(x9:logic_s0_x-or)
Ignoring empty pin current: Ix(x9:logic_s1_and)
Ignoring empty pin current: Ix(x9:logic_s1_not)
Ignoring empty pin current: Ix(x9:logic_s1_or)
Ignoring empty pin current: Ix(x9:logic_s1_x-or)
Ignoring empty pin current: Ix(x9:logic_s2_and)
Ignoring empty pin current: Ix(x9:logic_s2_not)
Ignoring empty pin current: Ix(x9:logic_s2_or)
Ignoring empty pin current: Ix(x9:logic_s2_x-or)
Ignoring empty pin current: Ix(x9:logic_s3_and)
Ignoring empty pin current: Ix(x9:logic_s3_not)
Ignoring empty pin current: Ix(x9:logic_s3_or)
Ignoring empty pin current: Ix(x9:logic_s3_x-or)
Ignoring empty pin current: Ix(x9:sc0)
Ignoring empty pin current: Ix(x9:sc1)
Ignoring empty pin current: Ix(x9:sc2)
Ignoring empty pin current: Ix(x9:sc3)
Ignoring empty pin current: Ix(x9:logic_s0)
Ignoring empty pin current: Ix(x9:logic_s1)
Ignoring empty pin current: Ix(x9:logic_s2)
Ignoring empty pin current: Ix(x9:logic_s3)
Ignoring empty pin current: Ix(x10:control)
Ignoring empty pin current: Ix(x10:x0)
Ignoring empty pin current: Ix(x10:x1)
Ignoring empty pin current: Ix(x10:x2)
Ignoring empty pin current: Ix(x10:x3)
Ignoring empty pin current: Ix(x10:y0)
Ignoring empty pin current: Ix(x10:y1)
Ignoring empty pin current: Ix(x10:y2)
Ignoring empty pin current: Ix(x10:y3)
Ignoring empty pin current: Ix(x10:sx0)
Ignoring empty pin current: Ix(x10:sx1)
Ignoring empty pin current: Ix(x10:sx2)
Ignoring empty pin current: Ix(x10:sx3)
Ignoring empty pin current: Ix(x10:sy0)
Ignoring empty pin current: Ix(x10:sy1)
Ignoring empty pin current: Ix(x10:sy2)
Ignoring empty pin current: Ix(x10:sy3)
Ignoring empty pin current: Ix(x11:x0)
Ignoring empty pin current: Ix(x11:x1)
Ignoring empty pin current: Ix(x11:x2)
Ignoring empty pin current: Ix(x11:x3)
Ignoring empty pin current: Ix(x11:overflow)
Ignoring empty pin current: Ix(x11:s1)
Ignoring empty pin current: Ix(x11:s2)
Ignoring empty pin current: Ix(x11:s3)
Ignoring empty pin current: Ix(x12:control)
Ignoring empty pin current: Ix(x12:x0)
Ignoring empty pin current: Ix(x12:x1)
Ignoring empty pin current: Ix(x12:x2)
Ignoring empty pin current: Ix(x12:x3)
Ignoring empty pin current: Ix(x12:y0)
Ignoring empty pin current: Ix(x12:y1)
Ignoring empty pin current: Ix(x12:y2)
Ignoring empty pin current: Ix(x12:y3)
Ignoring empty pin current: Ix(x12:sx0)
Ignoring empty pin current: Ix(x12:sx1)
Ignoring empty pin current: Ix(x12:sx2)
Ignoring empty pin current: Ix(x12:sx3)
Ignoring empty pin current: Ix(x12:sy0)
Ignoring empty pin current: Ix(x12:sy1)
Ignoring empty pin current: Ix(x12:sy2)
Ignoring empty pin current: Ix(x12:sy3)
Ignoring empty pin current: Ix(x13:x1)
Ignoring empty pin current: Ix(x13:x2)
Ignoring empty pin current: Ix(x13:x3)
Ignoring empty pin current: Ix(x13:s0)
Ignoring empty pin current: Ix(x13:s1)
Ignoring empty pin current: Ix(x13:s2)
Ignoring empty pin current: Ix(x14:control)
Ignoring empty pin current: Ix(x14:x0)
Ignoring empty pin current: Ix(x14:x1)
Ignoring empty pin current: Ix(x14:x2)
Ignoring empty pin current: Ix(x14:x3)
Ignoring empty pin current: Ix(x14:y0)
Ignoring empty pin current: Ix(x14:y1)
Ignoring empty pin current: Ix(x14:y2)
Ignoring empty pin current: Ix(x14:y3)
Ignoring empty pin current: Ix(x14:sx0)
Ignoring empty pin current: Ix(x14:sx1)
Ignoring empty pin current: Ix(x14:sx2)
Ignoring empty pin current: Ix(x14:sx3)
Ignoring empty pin current: Ix(x14:sy0)
Ignoring empty pin current: Ix(x14:sy1)
Ignoring empty pin current: Ix(x14:sy2)
Ignoring empty pin current: Ix(x14:sy3)
Ignoring empty pin current: Ix(x15:x0)
Ignoring empty pin current: Ix(x15:x1)
Ignoring empty pin current: Ix(x15:x2)
Ignoring empty pin current: Ix(x15:x3)
Ignoring empty pin current: Ix(x15:s0)
Ignoring empty pin current: Ix(x15:s1)
Ignoring empty pin current: Ix(x15:s2)
Ignoring empty pin current: Ix(x15:s3)
Ignoring empty pin current: Ix(x16:control)
Ignoring empty pin current: Ix(x16:x0)
Ignoring empty pin current: Ix(x16:x1)
Ignoring empty pin current: Ix(x16:x2)
Ignoring empty pin current: Ix(x16:x3)
Ignoring empty pin current: Ix(x16:y0)
Ignoring empty pin current: Ix(x16:y1)
Ignoring empty pin current: Ix(x16:y2)
Ignoring empty pin current: Ix(x16:y3)
Ignoring empty pin current: Ix(x16:sx0)
Ignoring empty pin current: Ix(x16:sx1)
Ignoring empty pin current: Ix(x16:sx2)
Ignoring empty pin current: Ix(x16:sx3)
Ignoring empty pin current: Ix(x16:sy0)
Ignoring empty pin current: Ix(x16:sy1)
Ignoring empty pin current: Ix(x16:sy2)
Ignoring empty pin current: Ix(x16:sy3)
Ignoring empty pin current: Ix(x17:x0)
Ignoring empty pin current: Ix(x17:x1)
Ignoring empty pin current: Ix(x17:x2)
Ignoring empty pin current: Ix(x17:x3)
Ignoring empty pin current: Ix(x17:s0)
Ignoring empty pin current: Ix(x17:s1)
Ignoring empty pin current: Ix(x17:s2)
Ignoring empty pin current: Ix(x17:s3)
Ignoring empty pin current: Ix(x18:overflow)
Ignoring empty pin current: Ix(x18:s0_0)
Ignoring empty pin current: Ix(x18:s0_1)
Ignoring empty pin current: Ix(x18:s0_2)
Ignoring empty pin current: Ix(x18:s0_3)
Ignoring empty pin current: Ix(x18:s1_0)
Ignoring empty pin current: Ix(x18:s1_1)
Ignoring empty pin current: Ix(x18:s1_2)
Ignoring empty pin current: Ix(x18:s1_3)
Ignoring empty pin current: Ix(x18:s2_0)
Ignoring empty pin current: Ix(x18:s2_1)
Ignoring empty pin current: Ix(x18:s2_2)
Ignoring empty pin current: Ix(x18:s2_3)
Ignoring empty pin current: Ix(x18:s3_0)
Ignoring empty pin current: Ix(x18:s3_1)
Ignoring empty pin current: Ix(x18:s3_2)
Ignoring empty pin current: Ix(x18:s3_3)
Ignoring empty pin current: Ix(x18:deslocamento_overflow)
Ignoring empty pin current: Ix(x18:deslocamento_s0)
Ignoring empty pin current: Ix(x18:deslocamento_s1)
Ignoring empty pin current: Ix(x18:deslocamento_s2)
Ignoring empty pin current: Ix(x18:deslocamento_s3)
Ignoring empty pin current: Ix(x19:control)
Ignoring empty pin current: Ix(x19:x0)
Ignoring empty pin current: Ix(x19:x1)
Ignoring empty pin current: Ix(x19:x2)
Ignoring empty pin current: Ix(x19:x3)
Ignoring empty pin current: Ix(x19:y0)
Ignoring empty pin current: Ix(x19:y1)
Ignoring empty pin current: Ix(x19:y2)
Ignoring empty pin current: Ix(x19:y3)
Ignoring empty pin current: Ix(x19:sx0)
Ignoring empty pin current: Ix(x19:sx1)
Ignoring empty pin current: Ix(x19:sx2)
Ignoring empty pin current: Ix(x19:sx3)
Ignoring empty pin current: Ix(x19:sy0)
Ignoring empty pin current: Ix(x19:sy1)
Ignoring empty pin current: Ix(x19:sy2)
Ignoring empty pin current: Ix(x19:sy3)
Ignoring empty pin current: Ix(x20:x0)
Ignoring empty pin current: Ix(x20:x1)
Ignoring empty pin current: Ix(x20:x2)
Ignoring empty pin current: Ix(x20:x3)
Ignoring empty pin current: Ix(x20:y0)
Ignoring empty pin current: Ix(x20:y1)
Ignoring empty pin current: Ix(x20:y2)
Ignoring empty pin current: Ix(x20:y3)
Ignoring empty pin current: Ix(x20:overflow)
Ignoring empty pin current: Ix(x20:s0)
Ignoring empty pin current: Ix(x20:s1)
Ignoring empty pin current: Ix(x20:s2)
Ignoring empty pin current: Ix(x20:s3)
Ignoring empty pin current: Ix(x21:control)
Ignoring empty pin current: Ix(x21:x0)
Ignoring empty pin current: Ix(x21:x1)
Ignoring empty pin current: Ix(x21:x2)
Ignoring empty pin current: Ix(x21:x3)
Ignoring empty pin current: Ix(x21:y0)
Ignoring empty pin current: Ix(x21:y1)
Ignoring empty pin current: Ix(x21:y2)
Ignoring empty pin current: Ix(x21:y3)
Ignoring empty pin current: Ix(x21:sx0)
Ignoring empty pin current: Ix(x21:sx1)
Ignoring empty pin current: Ix(x21:sx2)
Ignoring empty pin current: Ix(x21:sx3)
Ignoring empty pin current: Ix(x21:sy0)
Ignoring empty pin current: Ix(x21:sy1)
Ignoring empty pin current: Ix(x21:sy2)
Ignoring empty pin current: Ix(x21:sy3)
Ignoring empty pin current: Ix(x22:x0)
Ignoring empty pin current: Ix(x22:x1)
Ignoring empty pin current: Ix(x22:x2)
Ignoring empty pin current: Ix(x22:x3)
Ignoring empty pin current: Ix(x22:y0)
Ignoring empty pin current: Ix(x22:y1)
Ignoring empty pin current: Ix(x22:y2)
Ignoring empty pin current: Ix(x22:y3)
Ignoring empty pin current: Ix(x22:overflow)
Ignoring empty pin current: Ix(x22:s0)
Ignoring empty pin current: Ix(x22:s1)
Ignoring empty pin current: Ix(x22:s2)
Ignoring empty pin current: Ix(x22:s3)
Ignoring empty pin current: Ix(x23:control)
Ignoring empty pin current: Ix(x23:x0)
Ignoring empty pin current: Ix(x23:x1)
Ignoring empty pin current: Ix(x23:x2)
Ignoring empty pin current: Ix(x23:x3)
Ignoring empty pin current: Ix(x23:y0)
Ignoring empty pin current: Ix(x23:y1)
Ignoring empty pin current: Ix(x23:y2)
Ignoring empty pin current: Ix(x23:y3)
Ignoring empty pin current: Ix(x23:sx0)
Ignoring empty pin current: Ix(x23:sx1)
Ignoring empty pin current: Ix(x23:sx2)
Ignoring empty pin current: Ix(x23:sx3)
Ignoring empty pin current: Ix(x23:sy0)
Ignoring empty pin current: Ix(x23:sy1)
Ignoring empty pin current: Ix(x23:sy2)
Ignoring empty pin current: Ix(x23:sy3)
Ignoring empty pin current: Ix(x24:overflow)
Ignoring empty pin current: Ix(x24:s1)
Ignoring empty pin current: Ix(x24:s2)
Ignoring empty pin current: Ix(x24:s3)
Ignoring empty pin current: Ix(x24:s4)
Ignoring empty pin current: Ix(x24:s5)
Ignoring empty pin current: Ix(x24:s6)
Ignoring empty pin current: Ix(u16:vcc)
Ignoring empty pin current: Ix(x29:x0)
Ignoring empty pin current: Ix(x29:x1)
Ignoring empty pin current: Ix(x29:x2)
Ignoring empty pin current: Ix(x29:x3)
Ignoring empty pin current: Ix(x29:y0)
Ignoring empty pin current: Ix(x29:y1)
Ignoring empty pin current: Ix(x29:y2)
Ignoring empty pin current: Ix(x29:y3)
Ignoring empty pin current: Ix(x30:x0)
Ignoring empty pin current: Ix(x30:x1)
Ignoring empty pin current: Ix(x30:x2)
Ignoring empty pin current: Ix(x30:x3)
Ignoring empty pin current: Ix(x30:y0)
Ignoring empty pin current: Ix(x30:y1)
Ignoring empty pin current: Ix(x30:y2)
Ignoring empty pin current: Ix(x30:y3)
Ignoring empty pin current: Ix(x30:x>y)
Ignoring empty pin current: Ix(x31:x0)
Ignoring empty pin current: Ix(x31:x1)
Ignoring empty pin current: Ix(x31:x2)
Ignoring empty pin current: Ix(x31:x3)
Ignoring empty pin current: Ix(x31:y0)
Ignoring empty pin current: Ix(x31:y1)
Ignoring empty pin current: Ix(x31:y2)
Ignoring empty pin current: Ix(x31:y3)
Ignoring empty pin current: Ix(x31:s)
Ignoring empty pin current: Ix(u19:vcc)

Date: Mon Jul 11 23:26:39 2016
Total elapsed time: 7.878 seconds.

tnom = 27
temp = 27
method = modified trap
totiter = 2555
traniter = 2154
tranpoints = 1069
accept = 1065
rejected = 4
matrix size = 5868
fillins = 211
solver = Normal
Thread vector: 1249.2/630.9[4] 401.2/189.4[4] 362.6/215.6[4] 25.8/19.8[4]  2592/500
Matrix Compiler1: 161.04 KB object code size  101.6/55.4/[38.3]
Matrix Compiler2: off  [49.7]/83.8/75.1


